Version 4
SHEET 1 2316 1252
WIRE 640 352 544 352
WIRE 544 368 544 352
WIRE 640 368 640 352
WIRE 544 448 384 448
WIRE 800 448 640 448
WIRE 384 480 384 448
WIRE 800 480 800 448
WIRE 544 512 544 448
WIRE 640 512 640 448
WIRE 384 576 384 544
WIRE 448 576 384 576
WIRE 800 576 800 544
WIRE 800 576 736 576
WIRE -464 592 -720 592
WIRE -720 656 -720 592
WIRE -464 672 -464 592
WIRE -432 672 -464 672
WIRE -336 672 -368 672
WIRE -48 672 -336 672
WIRE 160 672 -48 672
WIRE 288 672 160 672
WIRE 448 672 288 672
WIRE 1184 672 736 672
WIRE 1376 672 1184 672
WIRE 1440 672 1376 672
WIRE 1520 672 1440 672
WIRE -464 704 -464 672
WIRE -336 704 -336 672
WIRE 448 768 432 768
WIRE 1184 768 1184 752
WIRE 1184 768 736 768
WIRE -464 800 -464 768
WIRE -432 800 -464 800
WIRE -336 800 -336 768
WIRE -336 800 -368 800
WIRE -48 816 -48 672
WIRE 160 816 160 672
WIRE -720 832 -720 736
WIRE -336 832 -336 800
WIRE -336 832 -720 832
WIRE 1376 832 1376 672
WIRE 1520 832 1520 672
WIRE 288 864 288 672
WIRE 448 864 288 864
WIRE 800 864 736 864
WIRE 1184 880 1184 768
WIRE 800 960 800 864
WIRE 800 960 736 960
WIRE -464 1056 -464 800
WIRE -48 1056 -48 880
WIRE -48 1056 -464 1056
WIRE 80 1056 -48 1056
WIRE 160 1056 160 880
WIRE 160 1056 80 1056
WIRE 592 1056 592 1024
WIRE 592 1056 160 1056
WIRE 800 1056 800 1024
WIRE 800 1056 592 1056
WIRE 1184 1056 1184 960
WIRE 1184 1056 800 1056
WIRE 1376 1056 1376 896
WIRE 1376 1056 1184 1056
WIRE 1520 1056 1520 912
WIRE 1520 1056 1376 1056
WIRE 80 1072 80 1056
WIRE 592 1072 592 1056
FLAG 80 1072 0
FLAG -720 592 AC+
FLAG -720 832 AC-
FLAG 1440 672 DC+
FLAG 592 1072 0
FLAG 432 768 0
FLAG 160 672 inbb
SYMBOL voltage -720 640 R0
WINDOW 123 24 44 Left 2
WINDOW 39 0 0 Left 0
WINDOW 3 -325 96 Left 2
WINDOW 0 -76 6 Left 2
SYMATTR Value SINE(0 3 36480)
SYMATTR InstName V1
SYMBOL cap -32 880 R180
WINDOW 0 24 56 Left 2
WINDOW 3 30 19 Left 2
SYMATTR InstName C4
SYMATTR Value 20µ
SYMATTR SpiceLine Rser=0.1
SYMBOL diode -432 688 R270
WINDOW 0 32 32 VTop 2
WINDOW 3 0 32 VBottom 2
SYMATTR InstName D2
SYMATTR Value PMEG10010ELR
SYMBOL diode -320 768 R180
WINDOW 0 24 64 Left 2
WINDOW 3 24 0 Left 2
SYMATTR InstName D3
SYMATTR Value PMEG10010ELR
SYMBOL diode -432 816 R270
WINDOW 0 32 32 VTop 2
WINDOW 3 0 32 VBottom 2
SYMATTR InstName D1
SYMATTR Value PMEG10010ELR
SYMBOL diode -448 768 R180
WINDOW 0 24 64 Left 2
WINDOW 3 24 0 Left 2
SYMATTR InstName D4
SYMATTR Value PMEG10010ELR
SYMBOL ind 560 464 R180
WINDOW 0 36 80 Left 2
WINDOW 3 36 40 Left 2
SYMATTR InstName L3
SYMATTR Value 10µ
SYMATTR SpiceLine Rser=20m
SYMBOL cap 368 480 R0
SYMATTR InstName C1
SYMATTR Value 22n
SYMBOL cap 784 480 R0
SYMATTR InstName C2
SYMATTR Value 22n
SYMBOL res 1168 656 R0
SYMATTR InstName R3
SYMATTR Value 3200k
SYMBOL PowerProducts\\LTC3129 592 768 R0
SYMATTR InstName U1
SYMBOL res 1200 976 R180
WINDOW 0 36 76 Left 2
WINDOW 3 36 40 Left 2
SYMATTR InstName R4
SYMATTR Value 4000k
SYMBOL cap 784 960 R0
WINDOW 3 23 45 Left 2
SYMATTR Value 2.2µ
SYMATTR InstName C3
SYMATTR SpiceLine Rser=5
SYMBOL cap 1360 832 R0
WINDOW 3 24 36 Left 2
SYMATTR Value 20µ
SYMATTR InstName C5
SYMBOL res 624 352 R0
SYMATTR InstName R2
SYMATTR Value 8.8m
SYMBOL current 1520 832 R0
SYMATTR InstName I1
SYMATTR Value 1.1µ
SYMBOL zener -656 928 R0
SYMATTR InstName D6
SYMATTR Value UMZ13K
SYMBOL zener 176 880 R180
WINDOW 0 24 64 Left 2
WINDOW 3 24 0 Left 2
SYMATTR InstName D5
SYMATTR Value BZX79C13
TEXT 112 592 Left 2 !.tran 0 0.5 0 1u
TEXT -480 464 Left 2 !.lib C:\\Users\\rruss\\Documents\\LTspiceXVII\\lib\\rbe01vym6a.lib
TEXT 104 192 Left 2 ;PCE calculation:
TEXT 104 216 Left 2 !.meas P_in AVG -I(V1)*V(AC+,AC-) FROM 0.3 TO 0.5
TEXT 104 240 Left 2 !.meas P_out AVG I(I1)*V(DC+) FROM 0.3 TO 0.5
TEXT 104 264 Left 2 !.meas PCE1 AVG (P_out/P_in)*100 FROM 0.3 TO 5
TEXT 96 80 Left 2 ;Input sweep:
TEXT 96 104 Left 2 !.step param VinAmp 0.5 10 0.5
TEXT -480 416 Left 2 !.lib C:\\Users\\rruss\\Documents\\LTspiceXVII\\lib\\BAT54_0.lib
TEXT -480 392 Left 2 !.lib C:\\Users\\rruss\\Documents\\LTspiceXVII\\lib\\BAS716.lib
TEXT -480 440 Left 2 !.lib C:\\Users\\rruss\\Documents\\LTspiceXVII\\lib\\BAS116.lib
TEXT -480 368 Left 2 !.lib C:\\Users\\rruss\\Documents\\LTspiceXVII\\lib\\PMEG10010ELR.lib
TEXT -480 344 Left 2 !.lib C:\\Users\\rruss\\Documents\\LTspiceXVII\\lib\\PMEG1020EA.lib
TEXT -480 320 Left 2 !.lib C:\\Users\\rruss\\Documents\\LTspiceXVII\\lib\\SDMG0340LS.lib
TEXT 96 152 Left 2 !.meas V_out AVG V(DC+) FROM 0.3 TO 0.5
TEXT 96 128 Left 2 ;average DC output:
TEXT 720 176 Left 2 ;Equivalent impedance calculation:
TEXT 736 216 Left 2 !.meas Zeq  AVG (V(AC+, AC-)/I(V1)) FROM 0.3 to 0.5
TEXT 736 248 Left 2 !.meas PhaseDiff PARAM (PHASE(V(AC+,AC-)) - PHASE(I(V1)))
TEXT 752 336 Left 2 ;.save V(AC+) V(AC-) I(V1) V(out) I(R1) I(R3) V(DC+) V(inbb)
TEXT -496 1144 Left 2 !.MODEL BZX79C13 D IS= 2.524e-016 RS= 0.5164 CJO= 1e-012 VJ= 0.75\n+ TT= 5e-009 M= 0.3333 BV= 13.1 IBV= 0.2655 N= 1\n+ EG= 1.11 XTI= 3 KF= 0 AF= 1 FC= 0.5\n+ TNOM= 27
