Version 4
SHEET 1 5056 900
WIRE 2480 -304 2320 -304
WIRE 2496 -304 2480 -304
WIRE 2736 -304 2576 -304
WIRE 2320 -272 2320 -304
WIRE 2736 -272 2736 -304
WIRE 2480 -240 2480 -304
WIRE 2576 -240 2576 -304
WIRE 2320 -176 2320 -208
WIRE 2384 -176 2320 -176
WIRE 2736 -176 2736 -208
WIRE 2736 -176 2672 -176
WIRE 816 -80 688 -80
WIRE 992 -80 880 -80
WIRE 1152 -80 1072 -80
WIRE 1264 -80 1152 -80
WIRE 1376 -80 1264 -80
WIRE 1536 -80 1440 -80
WIRE 1584 -80 1536 -80
WIRE 1712 -80 1648 -80
WIRE 1744 -80 1712 -80
WIRE 1856 -80 1808 -80
WIRE 1904 -80 1856 -80
WIRE 2144 -80 1968 -80
WIRE 2208 -80 2144 -80
WIRE 2336 -80 2288 -80
WIRE 2384 -80 2336 -80
WIRE 2912 -80 2672 -80
WIRE 3056 -80 2912 -80
WIRE 3296 -80 3136 -80
WIRE 3456 -80 3296 -80
WIRE 112 -64 -64 -64
WIRE 304 -64 176 -64
WIRE 432 -64 304 -64
WIRE 304 0 304 -64
WIRE 1856 16 1856 -80
WIRE 2384 16 2368 16
WIRE 2912 16 2912 0
WIRE 2912 16 2672 16
WIRE 432 32 432 16
WIRE 688 32 688 0
WIRE 1152 48 1152 -80
WIRE 1712 48 1712 -80
WIRE 1536 64 1536 -80
WIRE 2144 64 2144 -80
WIRE 3296 80 3296 -80
WIRE 3456 80 3456 -80
WIRE 2336 112 2336 -80
WIRE 2384 112 2336 112
WIRE 2736 112 2672 112
WIRE -64 128 -64 -64
WIRE 2912 128 2912 16
WIRE 2736 208 2736 112
WIRE 2736 208 2672 208
WIRE 1264 224 1264 -80
WIRE 1856 224 1856 80
WIRE 1856 224 1264 224
WIRE 688 304 688 112
WIRE 1152 304 1152 112
WIRE 1152 304 688 304
WIRE 1376 304 1152 304
WIRE 1536 304 1536 128
WIRE 1536 304 1376 304
WIRE 1712 304 1712 112
WIRE 1712 304 1536 304
WIRE 2144 304 2144 128
WIRE 2144 304 1712 304
WIRE 2528 304 2528 272
WIRE 2528 304 2144 304
WIRE 2736 304 2736 272
WIRE 2736 304 2528 304
WIRE 2912 304 2912 208
WIRE 2912 304 2736 304
WIRE 3296 304 3296 144
WIRE 3296 304 2912 304
WIRE 3456 304 3456 160
WIRE 3456 304 3296 304
WIRE 2528 320 2528 304
WIRE 1376 336 1376 304
WIRE -64 368 -64 208
WIRE 112 368 -64 368
WIRE 304 368 304 64
WIRE 304 368 112 368
WIRE 432 368 432 112
WIRE 432 368 304 368
WIRE 112 384 112 368
FLAG 112 384 0
FLAG 1376 336 0
FLAG 2528 320 0
FLAG 2368 16 0
SYMBOL cap 320 64 R180
WINDOW 0 24 56 Left 2
WINDOW 3 24 8 Left 2
SYMATTR InstName C2
SYMATTR Value 109p
SYMBOL ind2 416 16 R0
SYMATTR InstName L1
SYMATTR Value 60µ
SYMATTR Type ind
SYMBOL res 416 -80 R0
SYMATTR InstName R2
SYMATTR Value 1
SYMBOL ind2 672 16 R0
SYMATTR InstName Lr
SYMATTR Value 2.24µ
SYMATTR Type ind
SYMBOL res 672 -96 R0
SYMATTR InstName R3
SYMATTR Value 1
SYMBOL current -64 208 R180
WINDOW 0 24 80 Left 2
WINDOW 3 24 -35 Left 2
WINDOW 123 24 -7 Left 2
WINDOW 39 0 0 Left 0
SYMATTR InstName I1
SYMATTR Value SINE(0 1 39790)
SYMATTR Value2 AC 1
SYMBOL cap 176 -80 R90
WINDOW 0 0 32 VBottom 2
WINDOW 3 32 32 VTop 2
SYMATTR InstName C1
SYMATTR Value 270n
SYMBOL cap 880 -96 R90
WINDOW 0 0 32 VBottom 2
WINDOW 3 32 32 VTop 2
SYMATTR InstName C3
SYMATTR Value 7.14µ
SYMBOL ind 976 -64 R270
WINDOW 0 32 56 VTop 2
WINDOW 3 5 56 VBottom 2
SYMATTR InstName L3
SYMATTR Value 4m
SYMBOL cap 1136 48 R0
SYMATTR InstName C5
SYMATTR Value 4n
SYMBOL cap 1440 -96 R90
WINDOW 0 0 32 VBottom 2
WINDOW 3 32 32 VTop 2
SYMATTR InstName C6
SYMATTR Value 1µ
SYMBOL diode 1552 128 R180
WINDOW 0 24 64 Left 2
WINDOW 3 24 0 Left 1
SYMATTR InstName D1
SYMATTR Value DRBE01VYM6A
SYMBOL diode 1584 -64 R270
WINDOW 0 32 32 VTop 2
WINDOW 3 0 32 VBottom 1
SYMATTR InstName D2
SYMATTR Value DRBE01VYM6A
SYMBOL cap 3280 80 R0
SYMATTR InstName C7
SYMATTR Value 10µ
SYMBOL res 3440 64 R0
SYMATTR InstName R5
SYMATTR Value 6690k
SYMBOL cap 1696 48 R0
SYMATTR InstName C8
SYMATTR Value 1µ
SYMBOL diode 1744 -64 R270
WINDOW 0 32 32 VTop 2
WINDOW 3 0 32 VBottom 1
SYMATTR InstName D3
SYMATTR Value DRBE01VYM6A
SYMBOL diode 1904 -64 R270
WINDOW 0 32 32 VTop 2
WINDOW 3 0 32 VBottom 1
SYMATTR InstName D4
SYMATTR Value DRBE01VYM6A
SYMBOL cap 1840 16 R0
SYMATTR InstName C9
SYMATTR Value 1µ
SYMBOL ind 2480 -288 R270
WINDOW 0 32 56 VTop 2
WINDOW 3 5 56 VBottom 2
SYMATTR InstName L4
SYMATTR Value 10µ
SYMATTR SpiceLine Rser=20m
SYMBOL cap 2304 -272 R0
SYMATTR InstName C10
SYMATTR Value 22n
SYMBOL cap 2720 -272 R0
SYMATTR InstName C11
SYMATTR Value 22n
SYMBOL res 2896 -96 R0
SYMATTR InstName R6
SYMATTR Value 800k
SYMBOL PowerProducts\\LTC3129 2528 16 R0
SYMATTR InstName U1
SYMBOL res 2928 224 R180
WINDOW 0 36 76 Left 2
WINDOW 3 36 40 Left 2
SYMATTR InstName R7
SYMATTR Value 1000k
SYMBOL cap 2720 208 R0
WINDOW 3 23 45 Left 2
SYMATTR Value 2.2µ
SYMATTR InstName C12
SYMBOL cap 2128 64 R0
SYMATTR InstName C13
SYMATTR Value 10µ
SYMBOL res 3152 -96 R90
WINDOW 0 0 56 VBottom 2
WINDOW 3 32 56 VTop 2
SYMATTR InstName R8
SYMATTR Value 1µ
SYMBOL res 2304 -96 R90
WINDOW 0 0 56 VBottom 2
WINDOW 3 32 56 VTop 2
SYMATTR InstName R1
SYMATTR Value 1µ
TEXT 448 -104 Left 2 !K1 L1 Lr  0.02613
TEXT -208 424 Left 2 !;tran 1
TEXT 1424 -376 Left 2 !.tran 0 10 0 0.01
TEXT 1392 -312 Left 2 !.lib C:\\Users\\rruss\\Documents\\LTspiceXVII\\lib\\rbe01vym6a.lib
TEXT 1376 -288 Left 2 !.lib C:\\Users\\rruss\\Documents\\LTspiceXVII\\lib\\TPS7A\\tps7a02_03.lib
TEXT 2616 328 Left 2 !;tran 2m startup
