Version 4
SHEET 1 4016 680
WIRE 2944 -224 2784 -224
WIRE 2960 -224 2944 -224
WIRE 3200 -224 3040 -224
WIRE 2784 -192 2784 -224
WIRE 3200 -192 3200 -224
WIRE 2944 -160 2944 -224
WIRE 3040 -160 3040 -224
WIRE 2784 -96 2784 -128
WIRE 2848 -96 2784 -96
WIRE 3200 -96 3200 -128
WIRE 3200 -96 3136 -96
WIRE 544 0 272 0
WIRE 704 0 544 0
WIRE 864 0 832 0
WIRE 1024 0 944 0
WIRE 1200 0 1088 0
WIRE 1264 0 1200 0
WIRE 1424 0 1344 0
WIRE 1584 0 1488 0
WIRE 1632 0 1584 0
WIRE 1760 0 1696 0
WIRE 1792 0 1760 0
WIRE 1904 0 1856 0
WIRE 1952 0 1904 0
WIRE 2096 0 2016 0
WIRE 2144 0 2096 0
WIRE 2256 0 2208 0
WIRE 2336 0 2256 0
WIRE 2480 0 2400 0
WIRE 2800 0 2480 0
WIRE 2848 0 2800 0
WIRE 3376 0 3136 0
WIRE 3568 0 3376 0
WIRE 3760 0 3568 0
WIRE 3920 0 3760 0
WIRE 704 16 704 0
WIRE 1904 96 1904 0
WIRE 2256 96 2256 0
WIRE 2848 96 2832 96
WIRE 3376 96 3376 80
WIRE 3376 96 3136 96
WIRE 272 112 272 0
WIRE 544 128 544 0
WIRE 1760 128 1760 0
WIRE 1584 144 1584 0
WIRE 2096 144 2096 0
WIRE 2480 144 2480 0
WIRE 704 160 704 96
WIRE 3568 160 3568 0
WIRE 3760 160 3760 0
WIRE 3920 160 3920 0
WIRE 832 176 832 0
WIRE 2800 192 2800 0
WIRE 2848 192 2800 192
WIRE 3200 192 3136 192
WIRE 3376 208 3376 96
WIRE 1200 272 1200 0
WIRE 1904 272 1904 160
WIRE 1904 272 1200 272
WIRE 2256 272 2256 160
WIRE 2256 272 1904 272
WIRE 3200 288 3200 192
WIRE 3200 288 3136 288
WIRE 272 320 272 192
WIRE 544 320 544 192
WIRE 544 320 272 320
WIRE 704 320 704 240
WIRE 704 320 544 320
WIRE 832 320 832 256
WIRE 1008 320 832 320
WIRE 1344 320 1008 320
WIRE 1344 384 1344 320
WIRE 1424 384 1344 384
WIRE 1584 384 1584 208
WIRE 1584 384 1424 384
WIRE 1760 384 1760 192
WIRE 1760 384 1584 384
WIRE 2096 384 2096 208
WIRE 2096 384 1760 384
WIRE 2480 384 2480 208
WIRE 2480 384 2096 384
WIRE 2992 384 2992 352
WIRE 2992 384 2480 384
WIRE 3200 384 3200 352
WIRE 3200 384 2992 384
WIRE 3376 384 3376 288
WIRE 3376 384 3200 384
WIRE 3568 384 3568 224
WIRE 3568 384 3376 384
WIRE 3760 384 3760 224
WIRE 3760 384 3568 384
WIRE 3920 384 3920 240
WIRE 3920 384 3760 384
WIRE 2096 400 2096 384
WIRE 2992 400 2992 384
WIRE 1424 416 1424 384
FLAG 544 320 0
FLAG 1008 320 0
FLAG 1424 416 0
FLAG 2992 400 0
FLAG 2832 96 0
SYMBOL current 272 192 R180
WINDOW 0 24 80 Left 2
WINDOW 3 24 0 Left 2
WINDOW 123 0 0 Left 0
WINDOW 39 0 0 Left 0
SYMATTR InstName I1
SYMATTR Value SINE(0 1 56440)
SYMBOL cap 528 128 R0
SYMATTR InstName C1
SYMATTR Value 1.67p
SYMBOL res 688 0 R0
SYMATTR InstName R1
SYMATTR Value 2
SYMBOL ind2 688 144 R0
SYMATTR InstName L1
SYMATTR Value 42.3µ
SYMATTR Type ind
SYMBOL ind2 816 160 R0
SYMATTR InstName L2
SYMATTR Value 150m
SYMATTR Type ind
SYMBOL res 960 -16 R90
WINDOW 0 0 56 VBottom 2
WINDOW 3 32 56 VTop 2
SYMATTR InstName R2
SYMATTR Value 100
SYMBOL cap 1088 -16 R90
WINDOW 0 0 32 VBottom 2
WINDOW 3 32 32 VTop 2
SYMATTR InstName C2
SYMATTR Value 53p
SYMBOL cap 1488 -16 R90
WINDOW 0 0 32 VBottom 2
WINDOW 3 32 32 VTop 2
SYMATTR InstName C4
SYMATTR Value 200n
SYMBOL diode 1600 208 R180
WINDOW 0 24 64 Left 2
WINDOW 3 24 0 Left 1
SYMATTR InstName D1
SYMATTR Value DRBE01VYM6A
SYMBOL diode 1632 16 R270
WINDOW 0 32 32 VTop 2
WINDOW 3 0 32 VBottom 1
SYMATTR InstName D2
SYMATTR Value DRBE01VYM6A
SYMBOL cap 3744 160 R0
SYMATTR InstName C5
SYMATTR Value 0.47
SYMBOL res 3904 144 R0
SYMATTR InstName R4
SYMATTR Value 1000k
SYMBOL cap 1744 128 R0
SYMATTR InstName C6
SYMATTR Value 100n
SYMBOL diode 1792 16 R270
WINDOW 0 32 32 VTop 2
WINDOW 3 0 32 VBottom 1
SYMATTR InstName D3
SYMATTR Value DRBE01VYM6A
SYMBOL diode 1952 16 R270
WINDOW 0 32 32 VTop 2
WINDOW 3 0 32 VBottom 1
SYMATTR InstName D4
SYMATTR Value DRBE01VYM6A
SYMBOL cap 1888 96 R0
SYMATTR InstName C7
SYMATTR Value 100n
SYMBOL ind 2944 -208 R270
WINDOW 0 32 56 VTop 2
WINDOW 3 5 56 VBottom 2
SYMATTR InstName L4
SYMATTR Value 10µ
SYMATTR SpiceLine Rser=20m
SYMBOL cap 2768 -192 R0
SYMATTR InstName C8
SYMATTR Value 22n
SYMBOL cap 3184 -192 R0
SYMATTR InstName C9
SYMATTR Value 22n
SYMBOL res 3360 -16 R0
SYMATTR InstName R5
SYMATTR Value 800k
SYMBOL PowerProducts\\LTC3129 2992 96 R0
SYMATTR InstName U1
SYMBOL res 3392 304 R180
WINDOW 0 36 76 Left 2
WINDOW 3 36 40 Left 2
SYMATTR InstName R6
SYMATTR Value 1000k
SYMBOL cap 3184 288 R0
WINDOW 3 23 45 Left 2
SYMATTR Value 2.2µ
SYMATTR InstName C10
SYMBOL cap 2464 144 R0
SYMATTR InstName C11
SYMATTR Value 10µ
SYMBOL cap 3552 160 R0
WINDOW 3 24 36 Left 2
SYMATTR Value 10µ
SYMATTR InstName C12
SYMBOL diode 2144 16 R270
WINDOW 0 32 32 VTop 2
WINDOW 3 0 32 VBottom 1
SYMATTR InstName D5
SYMATTR Value DRBE01VYM6A
SYMBOL diode 2336 16 R270
WINDOW 0 32 32 VTop 2
WINDOW 3 0 32 VBottom 1
SYMATTR InstName D6
SYMATTR Value DRBE01VYM6A
SYMBOL cap 2080 144 R0
SYMATTR InstName C13
SYMATTR Value 100n
SYMBOL cap 2240 96 R0
SYMATTR InstName C14
SYMATTR Value 100n
SYMBOL res 1360 -16 R90
WINDOW 0 0 56 VBottom 2
WINDOW 3 32 56 VTop 2
SYMATTR InstName R3
SYMATTR Value 1m
TEXT 640 -16 Left 2 !K1 L1 L2 0.00076
TEXT 1144 -800 Left 2 !.tran 30
TEXT 1368 -736 Left 2 !.meas TRAN P_avg avg V(n005)*I(R3)
TEXT 1936 -808 Left 2 !;tran 400m
TEXT 1904 -744 Left 2 !.lib C:\\Users\\rruss\\Documents\\LTspiceXVII\\lib\\rbe01vym6a.lib
TEXT 1888 -720 Left 2 !.lib C:\\Users\\rruss\\Documents\\LTspiceXVII\\lib\\TPS7A\\tps7a02_03.lib
TEXT 2680 -1024 Left 2 !;tran 2m startup
TEXT 1376 -776 Left 2 !.meas TRAN P_avg avg V(n005)*I(C3)
